<?xml version="1.0" encoding="UTF-8"?>

<!-- generated on Tue Aug 16 16:33:13 2016 by SUMO duarouter Version 0.25.0
<?xml version="1.0" encoding="UTF-8"?>

<configuration xmlns:xsi="http://www.w3.org/2001/XMLSchema-instance" xsi:noNamespaceSchemaLocation="http://sumo.dlr.de/xsd/duarouterConfiguration.xsd">

    <input>
        <net-file value="munich.net.xml"/>
        <trip-files value="trips.trips.xml"/>
    </input>

    <output>
        <output-file value="munich10.rou.xml"/>
    </output>

    <processing>
        <ignore-errors value="true"/>
    </processing>

    <time>
        <begin value="0"/>
        <end value="300.0"/>
    </time>

    <report>
        <no-warnings value="true"/>
        <no-step-log value="true"/>
    </report>

</configuration>
-->

<routes xmlns:xsi="http://www.w3.org/2001/XMLSchema-instance" xsi:noNamespaceSchemaLocation="http://sumo.dlr.de/xsd/routes_file.xsd">
    <vehicle id="1" depart="1.00">
        <route edges="-131494227 53791937#1 286180062#2 286180062#3 4645391 4645392#2 -40317922#0 40317927 362368395#0 362368395#2 362368395#3 362368395#7 362368395#15 362368395#16 362368395#17 362368395#19 138578737#0 58872097#0 58872097#2 241674893 40317928#0 85004753 30761501 144692953 35881800 31232317#0 30965375#0 144278190#0 144278190#2 145571048#0 145571048#1 31019214 38333188 147855234#1 147855234#2 147855243#0 37527415#0 392308250 47722615#0 47722615#1 47722615#2 47722615#3 47722615#4 -153212412#2 -153212412#1"/>
    </vehicle>
    <vehicle id="3" depart="3.00">
        <route edges="-392103887 -40317922#0 40317927 362368395#0 50300586 286179735#0"/>
    </vehicle>
    <vehicle id="4" depart="4.00">
        <route edges="-223161750 -4645430#2 -4645430#1 -4645430#0 -31172943 -146234214 146234214 31159471#0 31159467#0 31159467#1 31159467#2 31159465 145431468 146050887 40317918 149929927#0 28338981 292960291 4000479 241674897 4000480 310971850#0 85004763 85004762#0 -315220265 -4592522 120199715 241324029#0 144698467#0 149782118#0 149782118#4 95670492#0 315220262#0 146913743#0 341824991#0 341824991#2 341824991#3 252377910#0 146913739#0 146913739#4 95667929#0 316009878#1 149936112#0 292950400 292950403 292950405#0 292950405#2 40317926#0 40317926#2 40317926#3 292950395#0 292950395#1 292950395#2 292950395#3 292950395#4 174414122#0 174414122#1 316009877 149401682 94741640#0 30964040#0 30964211 376229827#0"/>
    </vehicle>
    <vehicle id="5" depart="5.00">
        <route edges="95667932#0 315220260#0 315220260#1 27630586#0 27630586#1 125663800#0 125663800#1 125663800#2 125663800#3 28395840#0 28395840#1 28395840#2 315220269#0 144135879#0 144135879#1 145036935#3 315202577#0 315202577#1 315202577#3 315202577#4 315202577#5 315220270#0 145569742#0 145569742#3 351365301#1 144456136 366231805 3927366#0 3927366#1 46870051#0"/>
    </vehicle>
    <vehicle id="8" depart="8.00">
        <route edges="-40317920#2 -242358064#1 -242358060#2 123499640 40317919#0 -365762134#2 -365762135 -19371348 19371510 278513973#1 -151878378 -160015853#3 241324016#0 144698467#0 149782118#0 149782118#4 95670492#0 315220262#0 145303590#0 164081025#0 164081025#2 164081025#3 95667932#0 315220260#0 315220260#1 27630586#0 27630586#1 125663800#0 125663800#1 125663800#2 125663800#3 28395840#0 28395840#1 28395840#2 315220269#0 144135879#0 144135879#1 145036935#3 315202577#0 315202577#1 315202577#3 315202577#4 315202577#5 315220270#0 30825410 30751532#0 107023497 30751529 107023523 3812369#0 366231820 30804563 163316371#1 163316371#3 163316371#4 163316371#5 163316371#7 137269175#4 137269175#5 3926353#0 144078770"/>
    </vehicle>
    <vehicle id="9" depart="9.00">
        <route edges="51508352#9 -51508352#9 -51508352#8 -51508352#7 -51508352#6 -51508352#5 -51508352#3 -51508352#1 149935566#0 149935566#3 58561800#1 -392103887 -40317922#0 -27222779#10 -27222779#7 -27222779#4 27222781#0 -292962064#4 -292962064#3 -280335751#1"/>
    </vehicle>
    <vehicle id="10" depart="10.00">
        <route edges="23262330#1 331340037#1 331340037#3 331340037#4 331340037#5 -30923288#1 -37723863#2 -37723863#1 -37723863#0 145628200#0 145628200#1 102604787 364988565 30964917#0 163628891#0 163628891#3 315220272#0 144278188#0 144278188#1 292960296#0 73260231 73260233#0 73260233#2 145036128#0 -167443078 -167443079#1 40317918 149929927#0 292960298#1 292960298#2 118282022#0 118282022#1 -40317919#2 154782363#0 154782363#2 -93192053 -19686362 154782362#2"/>
    </vehicle>
    <vehicle id="11" depart="11.00">
        <route edges="-100321238#0 252956226 392103893#1 147557401#0 376401314 -297975990#1"/>
    </vehicle>
    <vehicle id="12" depart="12.00">
        <route edges="3810736 160527471#2 3810307#0 3810307#1 3810307#2 -23457621#6 -23457621#4 -23457621#3 -23457621#0 386978541#0 386978541#1 -365018747#2 -365018747#0 -51109540#1 4591432#0 134123085#0 -134123085#2 -386978544#1"/>
    </vehicle>
    <vehicle id="14" depart="14.00">
        <route edges="-160488082#5 -160488082#4 -160488082#2 -160488082#1 49800591#4 313577316 134941607#6 134941607#8 134941607#9 40317927 362368395#0 362368395#2 362368395#3 51476080#0 51476080#2 51476080#5 51508352#0 134929400#0 134929400#2 134929400#3 134929400#6 -355251752#1"/>
    </vehicle>
    <vehicle id="15" depart="15.00">
        <route edges="144457687#3 27715893#0 27715893#1 67562514#3 57376702#3 144928573#0 144928573#1 292948256#0 145598915#0 -120199715 4592522 315220265 33548773#0 33548773#2 51109544#0 147942773 30761501 144692953 292960292 145431467 -31159465 -31159464 -31159467#1 -31159467#0 37527404 42327397#1 4417118 156772154#1 156772154#2 156772154#4"/>
    </vehicle>
    <vehicle id="16" depart="16.00">
        <route edges="149935567#0 147557401#0 376401314 376401316#0 376401313 376401312#1 -3845812#3 -3845812#1 -28019886#4 -28019886#2 -28019886#1 -28019886#0 144291471#0 144291471#1 4002485#7 292962066#0 292962065#1 292962065#2 292962065#3 292962065#4 292962065#7 292962065#8 292962067#0 4002485#0 4002485#1 144291470#0 144291470#2 28019886#0"/>
    </vehicle>
    <vehicle id="17" depart="17.00">
        <route edges="34130308#1 -392103891#0 -34130308#0 -392088975#1 -392088974#0 -392069508#0 -89840558#4 -89840558#3 -392088973 -58807376#5 -58807376#2 -242358064#1 -242358060#2 123499640 40317919#0 50636516#0 118282031#1 257527112#0 28338977#0 167443079#0 167443078 167443080#0 31232317#0 30965375#0 144278190#0 144278190#2 145571054#0 145571054#1 31159271#2 31159271#3 315220271#0 143927076 72546416#0 72546416#3 145628205#0 145628205#1 145628205#2 145628205#3 -4645380#1 23262330#0 -144051873 138655000#1"/>
    </vehicle>
    <vehicle id="19" depart="19.00">
        <route edges="-113611093 27202778#1 146504814 146504815 37897187 243452654#0 223891292#0 4673733#0 4673733#1 4673733#2 4008984 389867038 24462849#0 24462849#2 18954784 4564470#0 38349484#0 37723862#1 37723862#2 37723862#3 145628200#0 145628200#1 102604787 364988565 30964917#0 163628891#0 163628891#3 315220272#0 144278188#0 144278188#1 292960296#0 73260231 73260233#0 73260233#2 145036128#0 -167443078 -167443079#1 40317918 149929927#0 292960298#1 292960298#2 118282022#0 118282022#1 -40317919#2 -123499640 242358060#0 58807374#0 58807374#3 58807374#6 392103893#0 392103893#1 147557401#0 376401314 376401316#0 376401313 376401312#1 -3845812#3 117849719#0 117849719#1 117849719#5"/>
    </vehicle>
    <vehicle id="20" depart="20.00">
        <route edges="-286179745 -51476080#1 362368395#7 362368395#15 362368395#16 362368395#17 362368395#19 138578737#0 58872097#0 58872097#2 241674893 40317928#0 85004753 30761501 144692953 35881800 31232317#0 30965375#0 144278190#0 144278190#2 145571048#0 145571048#1 31019214"/>
    </vehicle>
    <vehicle id="22" depart="22.00">
        <route edges="-153360030#1 -40317921#0 -392103887 -40317922#0 -27222779#10 -27222779#7 -27222779#4 -27222779#0 -100177591 -154911867#7 -154911867#5 -154911867#4 -154911867#3 -154911867#2 -154911867#1 35425871#0 292950403 292950405#0 292950405#2 40317926#0 40317926#2 40317926#3 292950395#0 292950395#1 292950395#2 292950395#3 292950395#4 174414122#0 174414122#1 316009877 149401684#0 149401684#1 124701356 154938154#0 154938154#1 154938154#2 154938154#5 109359107 -52804407#6 -52804407#5 -52804407#3 424120727 424120739#1"/>
    </vehicle>
    <vehicle id="23" depart="23.00">
        <route edges="151304010#1 -151304010#1 -151304010#0 144135879#0 144135879#1 145036935#3 315202577#0 146914351#0 -255108316 -27820464#1"/>
    </vehicle>
    <vehicle id="24" depart="24.00">
        <route edges="-149789272#1 149789275#0 4592533#0 4592533#1 341825035 299257170 95667932#0 315220260#0 315220260#1 27630586#0 27630586#1 125663800#0 125663800#1 125663800#2 125663800#3 28395840#0 28395840#1 28395840#2 315220269#0 144135879#0 144135879#1 145036935#3 315202577#0 315202577#1 315202577#3 315202577#4 315202577#5 315220270#0 145569742#0 145569742#3 351365301#1 144456136 366231829 -23586769#1"/>
    </vehicle>
    <vehicle id="26" depart="26.00">
        <route edges="4591378 39032519#0 4066454#0 324943394 -184617201#0 -3812057#1 -3812057#0 144716768#0 144716768#1 30825292#0 145036934#0 145036934#3 144135876#0 144279540#0 157999865#0 157999865#4 157999865#5 315220268 144135875#0 315220259#0 145303593#0 164081027#0 164081027#1 164081027#2 164081027#3 164081023 341824991#0 341824991#2 341824991#3 252377910#0 146913739#0 146913739#4 95667929#0 316009878#1 149936112#0 100177582#0 154911867#1 154911867#2 154911867#3 154911867#4 154911867#5 154911867#6 154911867#8 27222779#0 27222779#1 27222779#5 27222779#8 40317922#0 40317922#1 147557400#0 147557400#1 147557400#2 147557400#3 147557400#5 34062149 51179887"/>
    </vehicle>
    <vehicle id="29" depart="29.00">
        <route edges="-51508352#3 -51508352#1 149935566#0 149935566#3 58561800#1 147557400#0 147557400#1 147557400#2 147557400#3 147557400#5 147557400#6 -313577318#3 -313577318#1 -313577318#0 313577317 -313577316 -49800591#4 160488082#0 160488082#2 160488082#3 160488082#5 16786178#0"/>
    </vehicle>
    <vehicle id="31" depart="31.00">
        <route edges="-383345586#2 -383345586#1 -383345586#0 4432705#0 192123865#0 192123865#1 93192053 154782357 292960298#2 118282031#1 257527112#0 28338977#0 167443079#0 167443078 167443080#0 31232317#0 30965375#0 144278190#0 144278190#2 145571054#0 145571054#1 31159271#2 31159271#3 315220271#0 143927076 23462077#0 365018753#0 324838232"/>
    </vehicle>
    <vehicle id="33" depart="33.00">
        <route edges="-135588109 -34397762#1 -151263118 151263120#1 89840530#0 151334113#0 151334113#1 -97241128 -97241126 -48242678#1 -48242678#0 -89840540 -242358064#1 -242358060#2 123499640 40317919#0 -365762134#2 -365762135 -19371348 19371510 278513973#1 -151878378 -160015853#3 241324016#0 144698467#0 149782118#0 149782118#4 95670492#0 315220262#0 146913743#0 341824991#0 341824991#2 341824991#3 252377910#0 146913739#0 146913739#4 95667929#0 316009878#1 149936112#0 292950400 292950402#0 313579584#0 313579584#2 149936114#0 149936114#1 -4002311 -313579590 313579586#1 93195090#0 93195090#1 313579589#0 420990615#0"/>
    </vehicle>
    <vehicle id="34" depart="34.00">
        <route edges="144058467 144058498#1 331340037#4 331340037#5 -30923288#1 30923285#0 -30923154#1 -30923154#0 -3812483#2 -3810684#2 -3810684#1"/>
    </vehicle>
    <vehicle id="36" depart="36.00">
        <route edges="-30964293 316009877 149401684#0 149401684#1 124701356 154938154#0 154938154#1 154938154#2 45875405 177097514#0 177097514#1 -32472519#1 28395840#1 -51536919#4 -51536919#3 -51536919#2 -51536919#1 -51536919#0 157999865#5 315220268 144135875#0 315220259#0 144135871#0 144135873 315220261#0 67562514#0 67562514#1 67562514#2 67562514#3 57376702#3 144928573#0 144928573#1 292948256#0 145598915#0 -120199715 4592522 315220265 33548773#0 33548773#2 4592525#0 51109543 46505630#0 292960297#0 50636515#0 -40317919#2 -123499640 242358060#0 -40317920#2 39321854#0 48242678#0 48242678#1 97241126 97241128 50220178#0 50220178#2 135588108#0 365762133 151263118 34397762#0 4427964#0 112036203#0 -33487034#1 4427507"/>
    </vehicle>
    <vehicle id="40" depart="40.00">
        <route edges="49800592#1 49800592#2 49800592#5 -154911867#4 -154911867#3 -154911867#2 -154911867#1 35425871#0 292950403 292950405#0 292950405#2 40317926#0 40317926#2 40317926#3 292950395#0 292950395#1 292950395#2 292950395#3 292950395#4 174414122#0 174414122#1 316009877 149401684#0 149401684#1 124701356 154938154#0 154938154#1 154938154#2 45875405 177097514#0 177097514#1 -32472519#1 28395840#1 28395840#2 315220269#0 144135879#0 144135879#1 145036935#3 315202577#0 315202577#1 315202577#3 315202577#4 315202577#5 315220270#0 145569742#0 145569742#3 351365301#1 144456136 366231805 148877272#0 51109540#0 365018747#0 365018747#1 23457590#0 23457590#4 -33131468#2 3810668#0 3812483#0"/>
    </vehicle>
    <vehicle id="41" depart="41.00">
        <route edges="-244582813 89699186#5 -151263118 151263120#1 89840530#0 151334113#0 151334113#1 -97241128 -97241126 -48242678#1 -48242678#0 -89840540 -242358064#1 -242358060#2 123499640 40317919#0 -365762134#2 -365762135 -19371348 120199713#0"/>
    </vehicle>
    <vehicle id="44" depart="44.00">
        <route edges="27500861 151769268 38333190#0 151767202 315220263 292960296#0 73260231 73260233#0 73260233#2 145036128#0 30965182 27350220#1 -26798626 -32790538 32790537#0"/>
    </vehicle>
    <vehicle id="47" depart="47.00">
        <route edges="-89699186#7 89699186#5 -151263118 151263120#1 89840530#0 151334113#0 151334113#1 -97241128 -97241126 -48242678#1 -48242678#0 -89840540 -242358064#1 -242358060#2 123499640 40317919#0 50636516#0 118282031#1 257527112#0 28338977#0 167443079#0 167443078 167443080#0 31232317#0 30965375#0 144278190#0 144278190#2 145571054#0 145571054#1 31159271#2 -4645408#2 -4645408#0 -93891975 3812983 4645410 4645416 -3926024#3 -3926024#2"/>
    </vehicle>
    <vehicle id="48" depart="48.00">
        <route edges="373538965#0 373538965#1 62090916#0 3811755#0 3811755#2 3811755#3 3811756#0 3811756#1 3811756#2 3811756#5 3811459#0 3811459#2 30751935#0 30751935#2 315202575 315202576#0 315202576#2 315202576#3 315202576#4 315202576#5 30825410 30751532#0 107023497 30751529 107023523 3812369#0 366231820 30804563 -3926687 -116532568#0"/>
    </vehicle>
    <vehicle id="49" depart="49.00">
        <route edges="-196953767 4645446#0 73260231 73260233#0 73260233#2 145036128#0 -167443078 -167443079#1 40317918 149929927#0 28338981 292960291 4000479 241674897 4000480 310971850#0 85004763 85004762#0 -315220265 -4592522 120199715 241324029#0 292948255#0 25943195#0 -370897071 -151526822#2 -151526822#0 4002485#0 4002485#1 4002485#2 4002485#3 4002485#6 4002485#7 28019891 -51787589#1 -149789272#8 -149789272#4 -278713671#1"/>
    </vehicle>
    <vehicle id="50" depart="50.00">
        <route edges="19714161#0 31159465 145431468 146050887 40317918 149929927#0 28338981 292960291 4000479 241674897 4000480 310971850#0 85004763 85004762#0 -315220265 -4592522 120199715 241324029#0 144698467#0 149782118#0 349190920#0 -144928575#2 144457690#0 144457690#2 -144457687#2 107904257#0 107904257#1 50177529 -3846419#10 -276413729#1"/>
    </vehicle>
    <vehicle id="52" depart="52.00">
        <route edges="-145786279#7 -145786279#4 -145786279#1 145786280 50636516#0 118282031#1 257527112#0 28338977#0 167443079#0 167443078 167443080#0 31232317#0 30965375#0 144278190#0 144278190#2 145571054#0 145571054#1 31159271#2 31159271#3 315220271#0 143927076 72546416#0 72546416#3 37723863#1 37723863#2 30923285#0 -30923154#1 -30923154#0 30923154#0"/>
    </vehicle>
    <vehicle id="53" depart="53.00">
        <route edges="-224089403#1 151263120#1 89840530#0 151334113#0 151334113#1 -97241128 -97241126 -48242678#1 -48242678#0 -89840540 58807376#0 58807376#3 89840554 89840558#0 89840558#4 392069508#0 392069508#1 392088974#1 392088975#2 34130308#1 392103891#1 392103889#1 392103889#2 39321855#0 39321855#2 39321855#3 -4262232#1 4262232#0"/>
    </vehicle>
    <vehicle id="54" depart="54.00">
        <route edges="23586769#0 23586772 366231803 366231804#0 -107023523 -30751529 -107023497 107023499#0 145036934#3 144135876#0 144279540#0 157999865#0 157999865#4 157999865#5 3927665 4592509#0 4592509#1 -339005260"/>
    </vehicle>
    <vehicle id="56" depart="56.00">
        <route edges="-10070514#1 38332817#2 3791943#2 38332820 38332821 145571048#0 145571048#1 31019214 38333188 147855234#1 147855234#2 147855243#0 37527415#0 392308250 47722615#0 47722615#1 47722615#2 47722615#3 47722615#4 47722615#5 -4564482#1 -4564482#0"/>
    </vehicle>
    <vehicle id="57" depart="57.00">
        <route edges="52804407#1 52804407#2 52804407#3 52804407#5 52804407#6 151304011#3 379964137#4 -315220267#4 -315220267#3 -315220267#2 -315220267#1 -146800313#2 146914350#0 146914350#2 146914350#3 146914350#4 146914350#5 157999865#4 157999865#5 315220268 144135875#0 315220259#0 144135871#0 144135873 315220261#0 67562514#0 67562514#1 67562514#2 67562514#3 57376702#3 144928573#0 144928573#1 292948256#0 -241324016#3 -25943198#1 -144928572#1"/>
    </vehicle>
    <vehicle id="58" depart="58.00">
        <route edges="4662372 145036128#0 167443080#0 31232317#0 30965375#0 144278190#0 144278190#2 145571054#0 145571054#1 31159271#2 31159271#3 315220271#0 143927076 72546416#0 72546416#3 37723863#1 37723863#2 30923285#0 -30923154#1 331343260"/>
    </vehicle>
    <vehicle id="59" depart="59.00">
        <route edges="317798564 149789269#5 149789269#6 149789269#7 344664988#1 51476080#0 51476080#2 51476080#5 51508352#0 51508352#2 -392088975#1 -392088974#0 -392069508#0 -89840558#4 89840558#4 34130309#0 392069505 89840550#0 89840550#1 89840550#2 89840550#3 89840550#4 30603896#0 4071766#0 4071766#1 -4071766#3"/>
    </vehicle>
    <vehicle id="60" depart="60.00">
        <route edges="379964136#2 379964137#0 379964137#3 379964137#4 -315220267#4 -315220267#3 -315220267#2 -315220267#1 -146800313#2 146914350#0 146914350#2 146914350#3 146914350#4 146914350#5 157999865#4 157999865#5 315220268 144135875#0 315220259#0 144135871#0 144135873 315220261#0 67562514#0 67562514#1 67562514#2 67562514#3 -144928575#2 -144928575#0 226616362#2 -144928594#2"/>
    </vehicle>
    <vehicle id="62" depart="62.00">
        <route edges="-30750675#2 -30750675#0 3926025#0 3926025#1 3926025#3 -3926024#1 145571051 23374339 -30932611 -365018750 -365018752 -3654343 -144061668#1 -365018746 -33131466#1 -365018747#2 -365018747#0 -51109540#1 -148877272#1 -365018748#1 -144456136 144716768#0 144716768#1 30825292#0 -30825410 30825293#0 30825293#3 30825293#4 30825293#5 315202568#0 -57205976 -3811459#1 -3811756#5 -3811756#4 -3811756#1 48415910#0 48415910#1 48411549"/>
    </vehicle>
    <vehicle id="63" depart="63.00">
        <route edges="324045752 154911867#6 154911867#8 27222780#0 4592385#0 51787589#0 292962065#1 292962065#2 292962065#3 292962065#4 292962065#7 292962065#8 28019890 151526822#0 151526822#1 151526822#3 -25943195#1 25943191#1 149782120 241674889#0 292948256#0 145598915#0 -120199715 4592522 315220265 33548773#0 33548773#2 4592525#0 51109543 46505630#0 292960297#0 50636515#0 50636516#0 118282031#1 257527112#0 28338977#0 146050879#0 28338979#0 26557052#0 26557052#2 -47722621 -26644288 4645439#3 -4645445#4 -4645445#0 70255875 196953767"/>
    </vehicle>
    <vehicle id="65" depart="65.00">
        <route edges="144928594#0 144928594#3 144928588#0 144928588#1 144928578 144928575#1 -349190920#4 149782118#4 25943408#0 367868879#0 341824990#0 341824990#2 341824990#4 -111006551#12 -111006551#11 -111006551#8 -111006551#6 -421119523"/>
    </vehicle>
    <vehicle id="66" depart="66.00">
        <route edges="30750673#3 32209559#0 32209559#1 26695828 143927075 143927077#0 163628891#0 163628891#3 315220272#0 144278188#0 144278188#1 151767203#0 151767203#1 -38332822 3812981#0 3812981#1 30965375#0 144278190#0"/>
    </vehicle>
    <vehicle id="68" depart="68.00">
        <route edges="-46870055#0 386978541#0 386978541#1 -365018747#2 -365018747#0 -51109540#1 -148877272#1 -365018748#1 -144456136 144716768#0 144716768#1 30825292#0 145036934#0 145036934#3 144135876#0 144279540#0 157999865#0 157999865#4 157999865#5 315220268 144135875#0 315220259#0 145303593#0 164081027#0 164081027#1 164081027#2 164081027#3 164081023 341824991#0 341824991#2 341824991#3 252377910#0 146913739#0 146913739#4 95667929#0 316009878#1 149936112#0 100177582#0 154911867#1 154911867#2 154911867#3 154911867#4 -49800592#7 -421127382 -421119532#0"/>
    </vehicle>
    <vehicle id="71" depart="71.00">
        <route edges="-89699186#1 154470146#0 4645401 -154470151#0 -93192033#1 -93192033#0 154470139 93192027#0 89840554 89840558#0 89840558#4 392069508#0 392069508#1 392088974#1 -51508352#3 -51508352#1 149935566#0 149935566#3 58561800#1 -392103887 -40317922#0 -27222779#10 -27222779#7 -27222779#4 27222781#0 -292962064#4 -292962064#3 -280335751#1"/>
    </vehicle>
    <vehicle id="72" depart="72.00">
        <route edges="3810667#0 3810667#1 33131468#0 386978541#0 386978541#1 -365018747#2 -365018747#0 -51109540#1 -148877272#1 -365018748#1 -144456136 144716768#0 144716768#1 30825292#0 145036934#0 145036934#3 144135876#0 144279540#0 157999865#0 157999865#4 157999865#5 315220268 144135875#0 315220259#0 145303593#0 164081027#0 164081027#1 164081027#2 164081027#3 164081023 341824991#0 341824991#2 341824991#3 252377910#0 146913739#0 146913739#4 95667929#0 316009878#1 149936112#0 100177582#0 154911867#1 154911867#2 154911867#3 154911867#4 154911867#5 154911867#6 154911867#8 27222779#0 27222779#1 27222779#5 27222779#8 40317922#0 40317922#1 40317921#0 40317921#1 4645398 392103888 152130806#1 -53530910#1 155041000#0 155041000#1 27822839#0 -27822839#1"/>
    </vehicle>
    <vehicle id="73" depart="73.00">
        <route edges="-73561708 -4645445#0 70255875 196953767 26572500 25695639 -27500861"/>
    </vehicle>
    <vehicle id="75" depart="75.00">
        <route edges="-286179737 -124559504#10 -124559504#3 -124559504#0 -317892955 362368395#2 362368395#3 362368395#7 362368395#15 362368395#16 362368395#17 362368395#19 138578737#0 58872097#0 58872097#2 241674893 40317928#0 85004753 30761501 144692953 35881800 31232317#0 30965375#0 144278190#0 144278190#2 145571054#0 145571054#1 31159271#2 31159271#3 315220271#0 143927076 23462077#0 365018753#0 324838232"/>
    </vehicle>
    <vehicle id="76" depart="76.00">
        <route edges="152130806#1 -152130806#2 -152130806#0 -392103886 -40317921#2 -40317921#0 147557400#0 147557400#1 147557400#2 147557400#3 147557400#5 147557400#6 -313577318#3 -313577318#1 -313577318#0 313577317 -313577316 -49800591#4 160488082#0 160488082#2 160488082#3 243672425"/>
    </vehicle>
    <vehicle id="77" depart="77.00">
        <route edges="-124559504#10 -124559504#3 -124559504#0 -317892955 362368395#2 362368395#3 -344664988#2 -344664988#0 -149789269#6 -149789269#5 -149789269#4 -4592385#1 292962069#0 -27222779#0 -100177591 -154911867#7 -154911867#5 -154911867#4 -154911867#3 -154911867#2 -154911867#1 35425871#0 292950403 292950405#0 292950405#2 40317926#0 40317926#2 40317926#3 292950395#0 292950395#1 292950395#2 292950395#3 292950395#4 174414122#0 174414122#1 316009877 149401682 94741640#0 94741640#2 -149402025#2 -149402025#1 -149402025#0 -33129638#5 -33129638#1 -33129638#0 -379964137#4 -379964137#3 -379964137#2 -379964135#1 -379964136#1 3811755#0"/>
    </vehicle>
    <vehicle id="79" depart="79.00">
        <route edges="231373149 421310216#3 226616365#1 -310707186 151082431#0 88501256 310707194 -155039623#3 -155039623#0 4592548#0 4592548#2 4000324#0 4000324#1 4000324#2 4000324#5 4000324#6 4000324#9 149936113#0 149936113#1 313579582 313579585#0 292950405#0 292950405#2 40317926#0 40317926#2 40317926#3 292950395#0 292950395#1 292950395#2 292950395#3 292950395#4 174414122#0 174414122#1 316009877 149401684#0 149401684#1 124701356 154938154#0 154938154#1 154938154#2 45875405 177097514#0 177097514#1 -32472519#1 28395840#1 28395840#2 315220269#0 144135879#0 144135879#1 145036935#3 315202577#0 315202577#1 315202577#3 315202577#4 315202577#5 315220270#0 145569742#0 145569742#3 351365301#1 144456136 366231805 148877272#0 51109540#0 365018747#0 365018747#1 33131466#0 365018746 144061668#0 144061668#2 365018752 365018750 30932611 30932612 23462075#0 23462075#1 365018753#0 365018753#1 315220257 350873890#0 72546416#0 72546416#3 145628205#0 145628205#1 145628205#2 145628205#3 145628205#6 316433714#0 145628202#0 -85703292"/>
    </vehicle>
    <vehicle id="80" depart="80.00">
        <route edges="37527409 38349285 42327397#0 42327397#1 31159467#0 31159467#1 31159467#2 31159465 145431468 146050887 40317918 149929927#0 292960298#1 292960298#2 118282022#0 118282022#1 -40317919#2 -123499640 242358060#0 58807374#0 58807374#3 58807374#6 392103893#0 392103893#1 147557401#0 376401314 376401316#0 376401313 376401312#1 376401312#2 376401312#3 149935566#0 149935566#3 58561800#1 147557400#0 147557400#1 147557400#2 147557400#3 147557400#5 147557400#6 -313577318#3 -313577318#1 -313577318#0 -278719729#1"/>
    </vehicle>
    <vehicle id="81" depart="81.00">
        <route edges="-33129638#0 -379964137#4 -379964137#3 -379964137#2 -379964135#1 -379964136#1 -62090916#1 -379964134 -361861865#3 -361861865#2 -361861865#1 48411549"/>
    </vehicle>
    <vehicle id="82" depart="82.00">
        <route edges="-50295470 50295472#1 16786179#8 -51508352#1 149935566#0 149935566#3 58561800#1 -392103887 -40317922#0 -27222779#10 -27222779#7 -27222779#4 -27222779#0 -100177591 -154911867#7 -154911867#5 -154911867#4 -154911867#3 -154911867#2 -154911867#1 35425871#0 292950403 292950405#0 292950405#2 40317926#0 40317926#2 40317926#3 292950395#0 292950395#1 292950395#2 292950395#3 292950395#4 174414122#0 174414122#1 316009877 149401682 94741640#0 94741640#2 -149402025#2 -149402025#1 -149402025#0 149402024#0 149402024#2 292946855#0 292946855#1 4080122#0 4080122#1 154938153#0 124664602#0"/>
    </vehicle>
    <vehicle id="83" depart="83.00">
        <route edges="47722615#2 -47722615#2 -47722615#1 -47722615#0 -392308250 392308253#0 147855243#3 147850940 330799079#1 93091192#0 -93091192#1 37527411#0 37527411#1 330799080#1 96952515#1 96952515#2 147855238#2 147855238#3 151767202 315220263 292960296#0 73260231 73260233#0 73260233#2 145036128#0 -167443078 -167443079#1 40317918 149929927#0 292960298#1 292960298#2 118282022#0 118282022#1 -40317919#2 -123499640 242358060#0 58807374#0 58807374#3 58807374#6 392103893#0 392103893#1 147557401#0 376401314 376401316#0 376401313 376401312#1 376401312#2 376401312#3 149935566#0 149935566#3 58561800#1 147557400#0 147557400#1 147557400#2 147557400#3 147557400#5 147557400#6 -313577318#3 -313577318#1 -313577318#0 313577317 -313577317"/>
    </vehicle>
    <vehicle id="85" depart="85.00">
        <route edges="-196953767 196953767 26572500 25695639 151769268 38333190#0 151767204#0 151767204#1 216110864#1 38333188 147855234#1 147855234#2 147855243#0 37527415#0 392308250 47722615#0 47722615#1 47722615#2 47722615#3 47722615#4 47722615#5 47722597#0 47722597#1 393472160#0 364119614#0 364119614#1 37723863#0 37723863#1 37723863#2 30923285#0 -30923154#1 -30923154#0 -3812483#2 -3810668#1 33131468#0 386978541#0 386978541#1 -365018747#2 -365018747#0 -51109540#1 -148877272#1 -365018748#1 -144456136 144716768#0 144716768#1 30825292#0 -30825410 30825293#0 30825293#3 30825293#4 30825293#5 315202568#0 -57205976 -3811459#1 -3811756#5 -3811756#4 -3811756#1 -3811756#0 -3811755#3 -3811755#2 -3811755#1 -62090916#1 -379964134 -361861865#3 48411547#0 48411547#1"/>
    </vehicle>
    <vehicle id="86" depart="86.00">
        <route edges="-392088973 -58807376#5 -58807376#2 -242358064#1 -242358060#2 123499640 40317919#0 50636516#0 118282031#1 257527112#0 28338977#0 167443079#0 167443078 167443080#0 31232317#0 30965375#0 144278190#0 144278190#2 145571054#0 145571054#1 31159271#2 31159271#3 315220271#0 143927076 23462077#0 350873889#0 -23462127"/>
    </vehicle>
    <vehicle id="89" depart="89.00">
        <route edges="72546416#0 72546416#3 -37723863#0 145628200#0 145628200#1 102604787 364988565 30964917#0 163628891#0 163628891#3 315220272#0 144278188#0 144278188#1 292960296#0 73260231 73260233#0 73260233#2 145036128#0 -167443078 -167443079#1 40317918 149929927#0 292960298#1 292960298#2 118282022#0 118282022#1 -40317919#2 154782363#0 154782363#2 -93192053 -19686362 -154782362#1 -154782362#0 -383345587#2 -147645082#1 -147645082#0 383345586#2"/>
    </vehicle>
    <vehicle id="93" depart="93.00">
        <route edges="-107104139 -48415910#0 -3811756#0 -3811755#3 -3811755#2 -3811755#1 379964136#0 379964136#2 379964137#0 379964137#3 379964137#4 -315220267#4 -315220267#3 -315220267#2 -315220267#1 -146800313#2 146914350#0 146914350#2 146914350#3 146914350#4 146914350#5 157999865#4 157999865#5 315220268 144135875#0 315220259#0 144135871#0 144135873 315220261#0 67562514#0 67562514#1 67562514#2 67562514#3 57376702#3 144928573#0 144928573#1 292948256#0 145598915#0 -120199715 4592522 315220265 33548773#0 33548773#2 51109544#0 147942773 30761501 144692953 292960292 145431467 -31159465 31159465 145431468 145431469"/>
    </vehicle>
    <vehicle id="94" depart="94.00">
        <route edges="-350873892#0 350873892#0 4564472 4592546#0 4592546#2 47722597#1 -4564469#2 -4564469#1 30063802 30063803 152095521#0 163628891#3 315220272#0 144278188#0 144278188#1 292960296#0 73260231 73260233#0 73260233#2 145036128#0 30965182 26572563"/>
    </vehicle>
    <vehicle id="95" depart="95.00">
        <route edges="-145786279#7 -145786279#4 -145786279#1 -365762135 -19371348 19371510 278513973#1 -151878378 -160015853#3 241324016#0 144698467#0 149782118#0 149782118#4 95670492#0 315220262#0 145303590#0 164081025#0 164081025#2 164081025#3 95667932#0 315220260#0 315220260#1 27630586#0 27630586#1 125663800#0 125663800#1 125663800#2 125663800#3 28395840#0 28395840#1 28395840#2 146800313#0 315220267#0 -315220267#1"/>
    </vehicle>
    <vehicle id="99" depart="99.00">