<?xml version="1.0" encoding="iso-8859-1"?>

<configuration xmlns:xsi="http://www.w3.org/2001/XMLSchema-instance" xsi:noNamespaceSchemaLocation="http://sumo.sf.net/xsd/sumoConfiguration.xsd">

    <input>
        <net-file value="munich.net.xml"/>
        <route-files value="munich10.rou.xml"/>
	<additional-files value="munich.pol.xml"/>
    </input>
    <time>
	<begin value="0"/>
	<end value="1000"/>
	<step-length value="0.1"/>
    </time>
    <gui_only>
	<start value="true"/>
    </gui_only>
    <report>
        <no-duration-log value="true"/>
        <no-step-log value="true"/>
    </report>

</configuration>
